LAMMPS (10 Dec 2025 - Development - patch_10Dec2025-652-g3eacc1d145-modified)
KOKKOS mode with Kokkos version 5.0.0 is enabled
  will use up to 1 GPU(s) per node
package kokkos
package kokkos newton on neigh half
package kokkos gpu/aware on
units         metal
boundary      p p p
atom_style    atomic
atom_modify   map yes
newton        off

read_data     /pscratch/sd/d/demirand/nesap/nequip-benchmark-run/scaling_tests/base_files/structure_conventional.data
Reading data file ...
  orthogonal box = (0 0 0) to (10.279498 10.279498 10.279498)
  reading atoms ...
  52 atoms
replicate     6 6 6
Replication is creating a 6x6x6 = 216 times larger system...
  orthogonal box = (0 0 0) to (61.676988 61.676988 61.676988)
  11232 atoms
  replicate CPU = 0.011 seconds

pair_style    nequip
pair_coeff    * * /pscratch/sd/d/demirand/nesap/nequip-benchmark-run/models/compiled_models/NequIP-L-torchscript-a100.nequip.pth Li P S Cl
velocity      all create 300.0 123 rot yes dist gaussian

timestep      0.001
thermo        100

fix           f1 all nve
run           500

CITE-CITE-CITE-CITE-CITE-CITE-CITE-CITE-CITE-CITE-CITE-CITE-CITE

Your simulation uses code contributions which should be cited:

- KOKKOS package: https://doi.org/10.1145/3731599.3767498

@inproceedings{Johansson25,
 author = {A. Johansson and E. Weinberg and C. Trott and M. McCarthy and S. Moore},
 title = {{LAMMPS-KOKKOS}: {P}erformance Portable Molecular Dynamics Across Exascale Architectures},
 year = 2025,
 booktitle = {Proceedings of the SC '25 Workshops of the International Conference for High Performance Computing,
  Networking, Storage and Analysis},
 pages = {1217â€“1232},
}

CITE-CITE-CITE-CITE-CITE-CITE-CITE-CITE-CITE-CITE-CITE-CITE-CITE

Step          Temp          E_pair         E_mol          TotEng         Press
0   300           -46131.815      0             -45696.299      3165.1303
Loop time of 1271.57 on 1 procs for 500 steps with 11232 atoms

run           2000
Step          Temp          E_pair         E_mol          TotEng         Press
500   357.71035     -46215.447      0             -45696.151     -4860.0375
Averages over the last 11 of 21 rows, steps 1500 to 2500:
Temp E_pair E_mol TotEng Press
355.457 -46212.2 0 -45696.2 -6318.22
Loop time of 4773.31 on 1 procs for 2000 steps with 11232 atoms
